scripts/data/pwf/EMS_fase1.PWF
TITU
PWF_EMS_MUST 2020_2023                                                          
DOPC IMPR
(Op) E (Op) E (Op) E (Op) E (Op) E (Op) E (Op) E (Op) E (Op) E (Op) E
QLIM L VLIM L CREM L CTAP L STEP L NEWT L RCVG L RMON L FILE L CONT L
NOVO L CELO L MFCT L AREG L STPO L VLCR L CPHS L IANG L
99999
DCTE
(Mn) ( Val) (Mn) ( Val) (Mn) ( Val) (Mn) ( Val) (Mn) ( Val) (Mn) ( Val) 
BASE   100. DASE   100. TEPA    .01 EXST    .04 TETP     5. TBPA     5.
TLPP     1. TEPR    .01 QLST    .04 TLPR    .01 TLPQ     2. TSBZ    .01
TSBA     5. ASTP    .05 VSTP     5. TLVC    .05 TLTC    .01 TSFR  .1E-7
ZMAX   500. TLPV     .5 VDVM   200. VDVN    40. TUDC   .001 TADC    .01
PGER    30. TPST    .02 VFLD    70. ZMIN  .0001 HIST    470 LFIT     10
ACIT    100 LFCV      1 DCIT     10 VSIT     10 LPIT     50 LFLP     10
PDIT     10 LCRT    200 LPRT     60 CSTP     5. ASDC     1.
ICIT     50 DMAX      5 FDIV     2. ICMN    .05 VART     5. TSTP     32
ICMV     .5 APAS    90. CPAR    70. VAVT     2. VAVF     5. VMVF    15.
VPVT     2. VPVF     5. VPMF    10. VSVF    20. VINF     1. VSUP     1.
TLSI     0. NDIR    20. STTR     5. TRPT   100. STIR     1. BFPO     1.
LFPO     .1 TLMT     0. TLMF     0. TLMG     0.                        
99999
DBAR
(Num)OETGb(   nome   )Gl( V)( A)( Pg)( Qg)( Qn)( Qm)(Bc  )( Pl)( Ql)( Sh)Are(Vf)M(1)(2)(3)(4)(5)(6)(7)(8)(9)(10
   10 L1 VANGRA1UNE001 51040-41. 520.209.7-211. 414.                      441000                                   
   11 L1 VANGRA2UNE001 51020-40.1080.214.7-600. 600.                      441000                                   
   12 L1 VLCBARRUHE006 51030-16. 943.55.58-540. 420.                       11000                                   
   13 L1 TLCBARRSIN000 51014-20.   0.   0.   0.   0.                       11000                                   
   14 L1 VFUNIL-UHE002 51004-62. 111..7884-100. 100.                       11000                                   
   16 L1 VFURNASUHE008 51000-23.1094.-90.1-400. 400.                       11000                                   
   17 L1 TFURNASSIN000 51010-29.   0.   0.   0.   0.                       11000                                   
   18 L1 VITUMBIUHE006 5 9749.762052.-294.-546. 600.                       11000                                   
   19 L1 TITUMBISIN000 510061.71   0.   0.   0.   0.                       11000                                   
   20 L1 VMARIMBUHE008 51030-4.11339.-281.-640. 640.                       11000                                   
   21 L1 VMANSO-UHE003 5100016.2 142.-2.76 -60.  63.                       11000                                   
   22 L1 VM.MORAUHE006 51030-16. 281.-1.69-120. 126.                       11000                                   
   24 L1 VM.MORBUHE004 51030-16. 162.  62. -24.  62.                       11000                                   
   28 L1 VPCOLOMUHE004 51022-9.2 295.23.04-100. 100.                       11000                                   
   30 L1 VSCRU19UTE000 51003-57.   0.   0.   0.   0.                       11000                                   
   31 L1 VSCRU13UTE000 5 960-57.   0.   0.   0.   0.                       11000                                   
   32 L1 VSCRU16UTE000 51003-57.   0.   0.   0.   0.                       11000                                   
   35 L1 VCORUMBUHE003 5 96611.3 343.-57.1-180. 180.                       11000                                   
   36 L1 VS.MESAUHE003 5104817.11200.445.8-570. 570.                       11000                                   
   37 L1 TS.MESASIN000 5 98711.7   0.   0.   0.   0.                       11000                                   
   38 L1 TGRAJA2SIN001 51023-58.   0.62.43-120. 200.   178  1.3   0.       11000                                   
   40 L1 TBGERT1SIN001 51050-3.6   0.   0.   0.   0.                       11000                                   
   41 L1 TVITOR2SIN001 51020-65.   0.30.06 -30.  60.                       11000                                   
   42 L  EBAND-1CER345 5 990-.97                                           11000                                   
   43 L  EBAND-2CER345 5 990-.97                                           11000                                   
   44 L1 TGRAJA1SIN001 51023-58.   0.62.43-120. 200.   178  1.3   0.       11000                                   
   46 L  ECAMPOSCER345 51024-63.                                           11096                                   
   47 L1 TVITOR1SIN001 51020-65.   0.32.15 -35.  60.                       11000                                   
   48 L1 TIBIUNASIN004 51000-42.   0.-4.95-10801200.    86                 11000                                   
   50 L1 TTPRETOSIN001 51000-46.   0.127.5-180. 300.        .55   0.       11000                                   
   55 L  FBALTO-CER230 51005-2.1                                           11000                                   
   56 L  IIVAIP3-PR06950 889-32.                                           11000                                   
   57 L  IIVAIP2-PR06950 882-32.                                           1 960                                   
   58 L  UIVAIP2-PR000 6 997-32.                                           1 960                                   
   59 L  UIVAIP3-PR000 6 997-32.                                           11000                                   
   60 L  AF.IGUA-PR765 1 964-16.                                           11000                                   
   61 L  CFZ-500-PR500 31009-12.                                           11000                                   
   62 L  AIV-FZ1CAP765 11018-37.                                           11000                                   
   63 L  AIV-FZ2CAP765 11017-37.                                           11000                                   
   64 L  AIV-FZ3CAP765 11014-37.                                           11034                                   
   65 L  AIVAIPO-PR765 1 998-29.                                           11000                                   
   66 L  BIVAIPO-PR525 21030-31.                                           11000                                   
   67 L  IIVAIP1-PR06950 993-32.                            .24   0.       11000                                   
   68 L  UIVAIP1-PR000 6 993-32.                                           11000                                   
   69 L  AIV-IT1CAP765 1 977-23.                                           11000                                   
   70 L  AIV-IT2CAP765 1 977-23.                                           11000                                   
   71 L  AIV-IT3CAP765 1 977-24.                                           11030                                   
   72 L  AITABER-SP765 11012-35.                                           11000                                   
   73 L  AIT-TP1CAP765 1 977-28.                                           11000                                   
   74 L  AIT-TP2CAP765 1 977-28.                                           11000                                   
   75 L  AIT-TP3CAP765 1 975-28.                                           11000                                   
   76 L  ATPRETO-SP765 1 973-42.                                           11000                                   
   77 L  CTPRETO-SP500 31040-42.                                           11000                                   
   78 L  ETPRETO-SP345 51025-46.                                           11000                                   
   79 L  ITPRETO-SP06950 991-42.                                           11000                                   
   80 L  UTPRET3-SP000 6 991-42.                                           11000                                   
   81 L  UTPRET4-SP000 6 968-46.                                           11000                                   
   82 L  ETPRET2-SP345 51025-46.                                           11000                                   
   85 L  CFOZ500-PR500 31030-7.7                            60.   0.       11000                                   
   86 L  EIBIUNA-SP345 51032-42.                            66.   0.       11000                                   
   87 L  CRESEND-RJ500 31060-47.                           114. 21.9      411000                                   
   90 L  EVIANA--ES345 5 971-64.                                           11010                                   
   91 L  NVIANA1-ES013 5 969-67.                                          111010                                   
   92 L  CSB-SM1CAP500 31068-.93                                           11000                                   
   93 L  CSB-SM2CAP500 31076.496                                           11000                                   
   94 L  CSB-SM3CAP500 31076.504                                           11000                                   
   95 L  NVIANA2-ES013 5 969-67.                                          111010                                   
   96 L  NVIANA3-ES013 5 972-67.                                           11000                                   
   98 L  GJACAR1-RJ138 51004-59.                                           11000                                   
   99 L  BARARAQ-SP525 21003-23.                                           11000                                   
  100 L  CMARIMB-MG500 31083-9.7                                           11000                                   
  101 L  CARARAQ-SP500 31053-23.                                           11000                                   
  102 L  CP.CALD-MG500 31046-32.                                           11000                                   
  103 L  CCAMPIN-SP500 31028-38.                                           11000                                   
  104 L  CC.PAUL-SP500 31059-45.                                           11000                                   
  105 L  CANGRA--RJ500 31080-46.                                           11000                                   
  106 L  CADRIAN-RJ500 31057-52.                                           11000                                   
  107 L  CGRAJAU-RJ500 31061-54.                                           11000                                   
  108 L  CS.JOSE-RJ500 31058-53.                                           11000                                   
  109 L  CBYPSAD-RJ500 31057-52.                                           11000                                   
  110 L  UGR1T52-RJ000 61017-58.                                           11000                                   
  112 L  CBA-IB1-PR500 31063-52.                                           11000                                   
  113 L  CBA-IB2-PR500 31063-52.                                           11000                                   
  114 L  CBA-IT1-PR500 31064-52.                                          711000                                   
  115 L  CBA-IT1CAP500 31063-65.                                          711000                                   
  116 L  GIMBTAP-RJ138 51012-61.                                           11000                                   
  118 L  UBANDT4-GO000 5 985-3.6                                           11000                                   
  119 L  XBANDTE-GO013 5 985-3.6                                           11000                                   
  120 L  EP.CALD-MG345 51014-36.                                           11000                                   
  121 L  UPCAT51-MG000 61006-37.                                           11000                                   
  122 L  CIBIUNA-SP500 31075-44.                                           11000                                   
  123 L  ECAMPIN-SP345 51042-42.                                           11000                                   
  124 L  UCAMPI1-SP000 6 941-43.                                           11000                                   
  125 L  CIB-BA1CAP500 31025-37.                                           11000                                   
  126 L  EGUARUL-SP345 51020-48.                                           11000                                   
  127 L  EMO-RL1-SP345 51020-47.                                           11000                                   
  128 L  EMO-RL2-SP345 51020-47.                                           11015                                   
  129 L  EMOGI---SP345 51018-47.                                           11000                                   
  130 L  CIB-BA2CAP500 31025-37.                                           11000                                   
  131 L  EM.MORA-MG345 51036-22.                                           11000                                   
  133 L  UADRT1A-RJ000 61004-59.                                           11000                                   
  134 L  ELCBARR-SP345 51027-20.                                           11000                                   
  135 L  UJACT1A-RJ000 61024-59.                                           11000                                   
  136 L  EFURNAS-MG345 51014-29.                                           11000                                   
  137 L  UJACT2A-RJ000 61024-59.                                           11000                                   
  138 L  EITUTIN-MG345 51016-45.                                           11000                                   
  139 L  UADRT51-RJ000 61005-56.                                           11014                                   
  140 L  EADRIAN-RJ345 51035-55.                                           11000                                   
  141 L  UADRT53-RJ000 6 991-57.                                           11000                                   
  142 L  UADRT55-RJ000 6 990-57.                                           11070                                   
  143 L  UADRT2B-RJ000 61004-59.                                           11070                                   
  144 L  EJACARE-RJ345 51028-57.                                           11000                                   
  145 L  UADRT1B-RJ000 61003-59.                                           11000                                   
  146 L  UADRT2A-RJ000 61004-59.                                           11000                                   
  147 L  ECAMPOS-RJ345 51027-63.                                           11000                                   
  148 L  UCAMPO1-RJ000 61008-66.                                           11000                                   
  149 L  EVITORI-ES345 5 970-65.                                           11000                                   
  150 L  UVITAT1-ES000 6 950-69.                                           11000                                   
  152 L  UVITAT2-ES000 6 950-69.                                           11000                                   
  153 L  UVITAT3-ES000 6 949-69.                                           11000                                   
  154 L  NVITAT2-ES013 5 966-69.                                           11000                                   
  155 L  NVITAT3-ES013 5 965-69.                                           11000                                   
  156 L  NVITAT4-ES013 5 965-69.                                           11000                                   
  157 L  ECAMPCA-RJ345 51027-63.                                           11000                                   
  158 L  UVITAT4-ES000 6 951-69.                                           11000                                   
  159 L  XJA-R30-RJ013 51024-59.                                           11000                                   
  160 L  XJB-R60-RJ013 51024-59.                                           11000                                   
  161 L  FMO-FCE-SP230 51012-48.                            .33   0.       11000                                   
  162 L  UCAMAT1-SP000 61064-44.                                           11000                                   
  163 L  XCAMPI--SP013 51064-44.                                           11000                                   
  164 L  UPCAT02-MG000 61051-38.                                           11000                                   
  165 L  NP.CAL--MG013 51051-38.                                           11000                                   
  166 L  UJACT1B-RJ000 61024-59.                                           11000                                   
  167 L  XJA-R60-RJ013 51024-59.                                           11000                                   
  168 L  FBANDE2-GO230 51010-3.3                                           11000                                   
  169 L  GSJOSE2-RJ138 51016-59.                                           11000                                   
  170 L  GP.CALD-MG138 51029-38.                                           11000                                   
  171 L  GCAMPIN-SP138 51014-44.                           1.01   0.       11000                                   
  172 L  GIMBARE-RJ138 51001-61.                                           11000                                   
  173 L  GADRIAN-RJ138 51033-59.                                           11000                                   
  174 L  GR.LEAO-RJ138 5 968-73.                                           11000                                   
  175 L  GCAMPOS-RJ138 51049-66.                            .25   0.       11000                                   
  176 L  UCAMPI2-SP000 6 943-43.                                           11000                                   
  177 L  GVITORI-ES138 51029-69.                                           11000                                   
  178 L  GGRAJAU-RJ138 51005-58.                                           11000                                   
  179 L  UGR2T54-RJ000 61017-58.                                           11000                                   
  180 L  GJACAR2-RJ138 51004-59.                                           11000                                   
  181 L  GANGDEF-RJ138 51006-52.                                           11037                                   
  182 L  GFUNIL--RJ138 51006-65.                                           11000                                   
  183 L  GC.PAUL-SP138 51010-48.                                           11000                                   
  184 L  GS.CRUZ-RJ138 51007-57.                                           11000                                   
  185 L  GANGRA--RJ138 51009-47.                             3.   0.       11000                                   
  186 L  NCAMPI2-SP013 5 943-43.                                           11000                                   
  187 L  GM.MORA-MG138 51028-23.                                           11000                                   
  189 L  UBGERT1-DF000 61045-3.6                                           11000                                   
  190 L  GP.COL--MG138 51019-15.                                           11000                                   
  192 L  NCM1CAP-RJ013 51008-66.                                           11000                                   
  193 L  NCM1REA-RJ013 51008-66.                                           11000                                   
  194 L  NADRT55-RJ013 5 990-57.                                           11070                                   
  195 L  NADRT53-RJ013 5 991-57.                           2.31   0.       11000                                   
  196 L  NCAMPI1-SP013 5 941-43.                                           11000                                   
  197 L  NADRT51-RJ013 51005-56.                                           11014                                   
  198 L  NPCALAT-MG013 51006-37.                           1.17   0.       11000                                   
  199 L  NVITAT1-ES013 5 966-69.                            .42   0.       11000                                   
  200 L  UUCAMP1-RJ000 6 999-68.                                           11000                                   
  201 L1 VRSIL-1UTE001 5 995-69.   0.   0.   0.   0.       1.16   0.       11000                                   
  202 L  UUCAMP2-RJ000 6 999-68.                                           11000                                   
  203 L1 VRSIL-2UTE001 5 995-69.   0.   0.   0.   0.       1.16   0.       11000                                   
  204 L  NADRT1B-RJ013 51003-59.                                           11000                                   
  205 L  NADRT2A-RJ013 51004-59.                                           11000                                   
  206 L  NADRT2B-RJ013 51004-59.                                           11070                                   
  208 L  NBGERT1-DF013 51045-3.6                                           11000                                   
  209 L  XADRIAN-RJ013 51004-59.                                           11000                                   
  210 L  CITUMBI-MG500 310541.71                                           11000                                   
  211 L  UCAMPO2-RJ000 61008-66.                                           11000                                   
  212 L  NCM2CAP-RJ013 51008-66.                                           11000                                   
  213 L  EMARIMB-MG345 51019-10.                                           11000                                   
  214 L  UMARIMB-MG000 61022-11.                                           11000                                   
  215 L  NCM2REA-RJ013 51008-66.                                           11000                                   
  216 L  EP.COL--MG345 51026-11.                                           11000                                   
  217 L  EITUMBI-MG345 510071.51                                           11000                                   
  218 L  EBANDEI-GO345 5 999-.97                                           11000                                   
  219 L  EB.SUL--DF345 510293.37                                           11000                                   
  220 L  ECORUMB-GO345 510145.08                                           11000                                   
  221 L  LB.GERA-DF034 51001-3.3                                           11000                                   
  222 L  UBSULT2-DF000 610311.15                                           11000                                   
  223 L  UBANDT1-GO000 5 984-3.7                                           11000                                   
  224 L  UBANDT2-GO000 5 983 -4.                                           11000                                   
  225 L  FITUMBI-MG230 510232.48                                           11000                                   
  226 L  FBANDEI-GO230 51011-3.3                            .28   0.       11000                                   
  227 L  FB.GERA-DF230 510311.31                                           11000                                   
  228 L  FB.SUL--DF230 510311.57                                           11000                                   
  229 L  FB.ALTO-GO230 51017-2.1                            .54   0.       11000                                   
  230 L  FS.MESA-GO230 5103712.3                                           11000                                   
  231 L  FR.VERD-GO230 510223.24                                           11000                                   
  232 L  NBSULT2-DF013 510311.15                                           11000                                   
  233 L  CSAMAMB-DF500 310685.89                                           11000                                   
  234 L  ESAMAMB-DF345 510313.95                                           11000                                   
  235 L  CS.MESA-GO500 3106811.7                                           11000                                   
  236 L  GB.SUL--DF138 51024.208                            .81   0.       11000                                   
...
99999
DLIN
(De )d O d(Pa )NcEP ( R% )( X% )(Mvar)(Tap)(Tmn)(Tmx)(Phs)(Bc  )(Cn)(Ce)Ns(Cq)(1)(2)(3)(4)(5)(6)(7)(8)(9)(10
   38       17954         3.0195         1.                     200.200.  200.                                
   40       208 1            20.         1.                      20. 20.   20.                                
   44       11052             3.         1.                     200.200.  200.                                
   50        81 4          2.498         1.                     500.500.  500.                                
   56        59 1         3.3852         1.                     550.550.  1650                                
   57        58 1         3.6218         1.                     550.550.  550.                                
   60        62 1     .076  1.84 927.8                          36844173  3684                                
   60        63 1     .076  1.85 929.1                          36844173  3684                                
   60        64 1     .078  1.89954.57                          36844173  3684                                
   61        60 1 T         .622       1.05                     16501815  1880                                
   61        60 2 T        .6424       1.05                     16501815  1880                                
   61        60 3 T         .623       1.05                     16501815  1880                                
   61        60 4 T        .6226       1.05                     16501815  1880                                
   61        60 5           .623       1.05                     16501980  1650                                
   65        58 1          .8224       .993                     16501650  1650                                
   65        59 1          .7734         1.                     16501833  1897                                
   65        62 1          -.749                                36844173  3684                                
   65        63 1          -.749                                36844173  3684                                
   65        64 1          -.749                                36844173  3684                                
   65        68 1           .697       .993                     16501815  1995                                
   65        69 1          -.778                                36844173  3684                                
   65        70 1          -.778                                36844173  3684                                
   65        71 1          -.778                                36844173  3684                                
   66        58 1         -.1703      1.037 .8381.053         6616501650321650                                
   66        59 1         -.1183      1.037 .8381.053         6616501833321897                                
   66        68 1         -.0303      1.037 .8381.053         6616501815321995                                
   67        68 1         3.5455         1.                     550.550.  550.                                
   72        69 1     .064  1.53  760.                          41334174  3684                                
   72        70 1     .063  1.53 755.7                          41334174  3684                                
   72        71 1     .064  1.54 762.9                          41334174  3684                                
   72        73 1          -.915                                36844173  3684                                
   72        74 1          -.915                                36844173  3684                                
   72        75 1          -.915                                36844173  3684                                
   76        73 1     .074  1.75 877.5                          41334174  3684                                
   76        74 1     .072  1.75  873.                          41334174  3684                                
   76        75 1     .076  1.79 898.2                          41334174  3684                                
   76        80 3           .697       .993                     16501815  1995                                
   76        81 4         1.0276         1.                     15001650  1709                                
   77        76 1          .6739       1.05  .88 1.16         7716501650321650                                
   77        76 2          .6552       1.05  .88 1.16         7716501815321815                                
   77        80 3         -.0303       1.05  .88 1.16         7716501815321995                                
   77       104 1     .162   2.5 216.6                          18552337  2337                                
   77       598 1     .107  1.44 133.4                          18552252  2252                                
   78        76 5          .9007      1.057 .8591.115         7815001650321650                                
   78        81 4         -.1069      1.057 .8591.115         7815001650321709                                
   78        82 1           1.26                                450.450.  450.                                
   78        86 2 T   .187 2.602  60.1                          12801613  1613                                
   78       449 1      .07   .6612.845                          11841392  1392                                
   78       449 2      .07   .6612.845                          11841392  1392                                
   78       464 3 T    .11   .9917.073                          912.1103  1103                                
   78       471 1    .0954 .7982 14.39                          11841392  1184                                
   78       471 2    .0954 .7982 14.39                          11841392  1184                                
   79        80 3         3.5455         1.                     550.550.  550.                                
   82        76 6          .8916      1.063 .8591.115         8215001650321709                                
   82        76 7          .8714      1.063 .8591.115         8215001800321800                                
   82        86 1 T   .187 2.602  60.1                          12801613  1613                                
   82       449 3      .07   .6612.845                          13501350  1350                                
   82       449 4      .07   .6612.845                          13501350  1350                                
   85      1103 3 T  .0056 .096910.041                          27283377  3377                                
   85      1103 4 T  .0054 .0936 9.691                          27283377  3377                                
   86        48 1         .71475      1.013                     10501050  1050                                
   86       122 1         1.7111       .972 .8951.048       -122750.750.32802.                                
   86       122 2         1.7042       .972 .8951.048       -122750.750.32802.                                
   86       122 3         1.6718       .972 .8951.048       -122750.900.321050                                
   86       488 1    .09481.4987 41.91                          20202390  2390                                
   86       488 2    .09481.4987 41.91                          20202390  2390                                
   90      2590 1            .01                                370.370.  370.                                
   90      2608 1         4.8466      1.005                     225.270.  225.                                
   90      2618 1         4.8611      1.005                     225.270.  225.                                
   90      2628 1         4.6496      1.004                     225.270.  225.                                
   90      3032 1      .23  2.62 45.02                          747.747.  747.                                
   91      2608 1         9.7001         1.                      75. 75.   75.                                
   95      2618 1         9.7726         1.                      75. 75.   75.                                
   96      2628 1         9.8304         1.                      75. 75.   75.                                
   98       135 1         -.2333      .9805   .9  1.1         98225.270.32225.                                
   98       166 1         -.3898      .9805   .9  1.1         98225.292.32225.                                
   98       178 1      .88  5.03 1.428                          194.247.  218.                                
   98      1429 1     .6723.8288 1.088                          194.247.  194.                                
   98      3237 1    .0811    .6 .7262                          478.602.  478.                                
   98      3238 1    .0811    .6 .7262                          478.602.  478.                                
   98      3958 1D     .54  3.06   .87                          194.247.  218.                                
   99       101 1            .01       .952                     20002000  2000                                
   99       556 1 T   .182 2.807 350.1                          20012001  2001                                
  100        20 1            .79         1.                     16201620  1620                                
  100       214 1          2.979       1.05  .95 1.05        100560.717.32560.                                
  100       535 1 T   .153   2.4 203.8                          17321732  1732                                
  100      3110 1    .12022.5333 121.8                          19922390  2390                                
  100      4598 1     .006  .087   7.4                          18552337  2337                                
  100      4598 2     .006  .086   7.2                          18552337  2337                                
  100      4598 3    .0064 .08247.1767                          31233498  1992                                
  101       102 1     .156  2.46 208.5                          18552337  2337                                
  101       103 1     .152  2.39 202.6                          18552337  2337                                
  102       12151           2.93       1.05                     560.717.  717.                                
  102      1503 1     .129 1.998 167.7                          18552337  2337                                
  103       12451         2.9458       1.05                     560.717.  717.                                
  103       17654         2.9116       1.05                     560.728.  728.                                
  103       609 1      .06   .95 76.58                          18552337  2337                                
  103      6609 1     .024  .372  31.3                          18552337  2337                                
  104        77 2     .125 1.913285.35                          27282728  2728                                
  104        87 2     .047  .806  64.6                          18552337  1855                                
  104       598 1 T   .075  1.15  98.9                          18552252  2252                                
  104       609 1      .15  2.36190.12                          18552337  2337                                
  104      1503 1     .051  .792  66.5                          18552337  2337                                
  104      9626 3      .11 2.049 207.7                          24732598  2473                                
  105        10 1           1.97      1.075                     777.777.  777.                                
  105        11 1            .95      1.075                     14771477  1477                                
  105       104 1     .092  1.48 119.6                          18552337  1855                                
  105      9601 1     .092 1.363 115.3                          18552337  1855                                
  105      9608 1     .101 1.518 127.8                          18552337  2337                                
  106       108 1     .019  .389  42.1                          25982598  2598                                
  106       109 1           .001                                24732598  2473                                
  106       139 1          3.103       1.05                     560.644.  560.                                
  106       141 1         3.8333       1.05                     560.716.  560.                                
  106       142 1         4.1368       1.05                     560.716.  560.                                
  107       11052          2.141       1.05                     600.720.  600.                                
  107       17954         2.1497       1.05                     600.720.  600.                                
  109       107 1     .033  .673  72.6                          25982598  2598                                
  109      9626 3     .013  .238  24.1                          24732598  2473                                
  112       895 1            .01       1.05                     12992252  2252                                
  113       895 1            .01       1.05                     12992252  2252                                
  114       115 1         -2.425                                19312124  1931                                
  114       895 1            .01       1.05                     26163715   88.                                
  115      6609 1    .2595 4.185647.09                          29103668  3668                                
  116       172 1D    .125  .722  .207                          145.145.  145.                                
  116       173 1 T   .625 3.608 1.033                          153.193.  146.                                
  116      1732 1     2.29 13.23 3.804                          146.207.  146.                                
  119       118 4         15.049         1.                      75. 75.   75.                                
  120       12151          -.526       1.01                     560.717.  717.                                
  120       123 1     .357  3.95  66.7                          853.1075  1075                                
  120       164 2         7.5449       .957                     150.150.  150.                                
  120       697 1     .394  4.39 74.85                          853.1075  1075                                
  122       125 1         -2.051                                12992251  2251                                
  122       130 1         -2.051                                12992251  2251                                
  122      6609 1     .081 1.248 105.1                          18552337  2337                                
  123       12451          -.528        1.1  .95  1.1        123560.717.32717.                                
  123       162 1         5.5633         1.                     149.176.  176.                                
  123       17654         -.4129        1.1  .95  1.1        123560.728.32728.                                
  125       112 1 T   .308 3.958 444.8                          12992252  2251                                
  126        86 1     .108  1.83  51.2                          17072150  2150                                
  126        86 2     .108  1.83  51.2                          17072150  2150                                
  126       120 1 T     .6  5.95  92.8                          776.977.  977.                                
  126       120 2 T   .606  6.02  93.8                          776.977.  977.                                
  126       123 1 T    .25  2.76  46.5                          853.1075  1075                                
  126       442 1       .1   .99  15.2                          776.977.  977.                                
  127       129 1            .76                                912.1103  1103                                
  128       129 1            .76                                912.1103  1103                                
  129       442 1 T    .09   .84 13.38                          776.977.  977.                                
  130       113 1     .308 3.958 444.8                          12992252  2251                                
  131        22 1          3.693         1.                     378.378.  378.                                
  131      3012 1     .038  .427   6.7                          853.1075  853.                                
  134        12 1            .89       .999                     11801180  1180                                
  134        13 1           5.34       .999                     99999999  9999                                
  134       120 1     .556  6.16 105.3                          853.1075  853.                                
  134       120 2     .553  6.13 107.7                          853.1075  853.                                
  134       396 1     .318  3.51  59.2                          853.1075  853.                                
  134      3012 1     .071  .755  12.8                          853.1075  853.                                
  134      3012 2     .071  .764  12.9                          853.1075  853.                                
  136        16 1            .96         1.                     12801280  1280                                
  136        17 1           7.68         1.                     99999999  9999                                
  136       120 1     .436   4.3  66.6                          776.977.  776.                                
  136       120 2     .436   4.3  66.6                          776.977.  776.                                
  136       131 1     .358 3.383   52.                          776.956.  717.                                
  136       138 1     .649  6.46 100.8                          776.977.  776.                                
  136       138 2     .558  6.19 105.7                          853.1075  853.                                
  136       367 1      .22  2.18  33.4                          776.977.  776.                                
  136       367 2 T   .179 1.78434.299                          11321132  1132                                
  138       331 1     .423 4.39973.673                          11591159  1159                                
  140       133 1          4.678      1.004                     225.225.  225.                                
  140       138 1     .652   6.5 101.4                          776.896.  776.                                
  140       138 2     .558  6.19 105.7                          853.896.  853.                                
  140       139 1          -.632       1.03                     560.644.  560.                                
  140       141 1         -1.211       1.04                     560.716.  560.                                
  140       142 1         -1.504       1.04                     560.716.  560.                                
  140       143 1         4.6867      1.004                     225.252.  225.                                
  140       144 1      .11 1.251 19.36                          776.956.  776.                                
  140       145 1         4.6467      1.005                     225.252.  225.                                
  140       146 1         4.6651      1.005                     225.265.  225.                                
  140      1781 1     .298 3.328  57.7                          853.1075  853.                                
  140      3966 1     .491 5.486  95.1                          853.1075  853.                                
  140      9609 1     .077   .84 13.96                          853.1075  1075                                
  144       135 1           4.42         1.                     225.270.  225.                                
  144       137 1         4.4185         1.                     225.270.  225.                                
  144       166 1         4.8116         1.                     225.292.  225.                                
  147        46 1            .01                                120.120.   15.                                
  147       148 1         4.7297      1.004                     225.259.  225.                                
  147       157 1            .01                                99999999  9999                                
  147       211 2         5.1356      1.004                     225.270.  225.                                
  147      3032 1      .33  3.62 62.18                          747.747.  747.                                
  147      3032 2      .33  3.62 62.18                          717.717.  717.                                
  147      3966 1     .256 2.863  48.9                          853.1075  853.                                
  147      3966 2     .257 2.862   49.                          853.1075  853.                                
  147      3966 3     .258 2.726  50.9                          11321132  1132                                
  149        41 1         18.717      1.005  .95 1.15        149 60. 60.17 60.                                
  149        47 1           17.5      1.005  .95 1.15        149 60. 60. 9 60.                                
  149        90 1     .073  .807  13.9                          747.747.  747.                                
  149       150 1         5.2556      1.004                     225.259.  225.                                
  149       152 1         5.2111      1.004                     225.225.  225.                                
  149       153 1          5.263      1.004                     225.259.  225.                                
  149       158 1         4.7207      1.004                     225.225.  225.                                
  154       152 1         16.567         1.                      75. 75.   75.                                
...
99999
DCSC
(De ) O  (Pa )NcEPB      (Xmin)(Xmax)( Xv )C ( Vsp) (Ext)Nst(Cn)(Ce)(Cq)(1)(2)(3)(4)(5)(6)(7)(8)(9)(10
 7592     5590 1          -1.76  -.59 -.637X  -.637  7592   999999999999                               
  235     7236 1          -1.76  -.59 -.637X  -.637   235   129917321299                               
 7594     5590 1          -1.76  -.59 -.637X  -.637  7594   999999999999                               
99999
DBSH
(NFr) O (NTo) Nc C (Vmn (Vmx Bctrl (Qini) T A (Extr
   40            D 0950 1050    40        C         
(G  O E (U) UOp (Sht )
10    D   1   0   -10.
FBAN
(NFr) O (NTo) Nc C (Vmn (Vmx Bctrl (Qini) T A (Extr
   56            D 0800 1200    56  -360. C         
(G  O E (U) UOp (Sht )
10        2   2  -180.
FBAN
(NFr) O (NTo) Nc C (Vmn (Vmx Bctrl (Qini) T A (Extr
   57            D 0800 1200    57  -360. C         
(G  O E (U) UOp (Sht )
10        3   2  -180.
FBAN
(NFr) O (NTo) Nc C (Vmn (Vmx Bctrl (Qini) T A (Extr
   65            D 0900 1100    65  -330. C         
(G  O E (U) UOp (Sht )
10        1   1  -330.
FBAN
(NFr) O (NTo) Nc C (Vmn (Vmx Bctrl (Qini) T A (Extr
   67            D 0800 1200    67        C         
(G  O E (U) UOp (Sht )
10        3   0  -180.
FBAN
(NFr) O (NTo) Nc C (Vmn (Vmx Bctrl (Qini) T A (Extr
   72            D 0900 1100    72  -330. C         
(G  O E (U) UOp (Sht )
10        1   1  -330.
20        1   0  -330.
FBAN
(NFr) O (NTo) Nc C (Vmn (Vmx Bctrl (Qini) T A (Extr
   78            F 1020 1050    78   200. C         
(G  O E (U) UOp (Sht )
10        4   1   200.
FBAN
(NFr) O (NTo) Nc C (Vmn (Vmx Bctrl (Qini) T A (Extr
   79            D 0800 1200    79        C         
(G  O E (U) UOp (Sht )
10        2   0  -180.
FBAN
(NFr) O (NTo) Nc C (Vmn (Vmx Bctrl (Qini) T A (Extr
   82            D 0900 1100    82   200. C         
(G  O E (U) UOp (Sht )
10        5   1   200.
FBAN
(NFr) O (NTo) Nc C (Vmn (Vmx Bctrl (Qini) T A (Extr
   85            F 0950 1050    85  1540. C         
(G  O E (U) UOp (Sht )
10        3   3   280.
20        2   2   350.
FBAN
(NFr) O (NTo) Nc C (Vmn (Vmx Bctrl (Qini) T A (Extr
   86            F 0950 1050    86 2024.4 C         
(G  O E (U) UOp (Sht )
10        2   2    59.
20        3   3  220.8
30        4   4   237.
40        1   0  279.8
50        2   0   294.
60        2   1   296.
FBAN
(NFr) O (NTo) Nc C (Vmn (Vmx Bctrl (Qini) T A (Extr
   90    3032  1 D 0950 1050    90   -60. C      90 
(G  O E (U) UOp (Sht )
10        1   1   -60.
FBAN
(NFr) O (NTo) Nc C (Vmn (Vmx Bctrl (Qini) T A (Extr
  210     100  1 F 1000 1100   100        C     100 
(G  O E (U) UOp (Sht )
10        1   0  -100.
FBAN
(NFr) O (NTo) Nc C (Vmn (Vmx Bctrl (Qini) T A (Extr
  100    4598  3 D 1000 1100   100  -100. C     100 
(G  O E (U) UOp (Sht )
10        1   1  -100.
FBAN
(NFr) O (NTo) Nc C (Vmn (Vmx Bctrl (Qini) T A (Extr
  100    4598  2 D 1000 1100   100  -100. C     100 
(G  O E (U) UOp (Sht )
10        1   1  -100.
FBAN
(NFr) O (NTo) Nc C (Vmn (Vmx Bctrl (Qini) T A (Extr
  103     609  1 D 0950 1050   103        C     103 
(G  O E (U) UOp (Sht )
10        1   0  -112.
FBAN
(NFr) O (NTo) Nc C (Vmn (Vmx Bctrl (Qini) T A (Extr
  104      87  2 D 1000 1100   104  -136. C     104 
(G  O E (U) UOp (Sht )
10        1   1  -136.
FBAN
(NFr) O (NTo) Nc C (Vmn (Vmx Bctrl (Qini) T A (Extr
 9605     104  1 D 1000 1100   104  -136. C     104 
(G  O E (U) UOp (Sht )
10        1   1  -136.
FBAN
(NFr) O (NTo) Nc C (Vmn (Vmx Bctrl (Qini) T A (Extr
  105    9601  1 D 1000 1100   105        C     105 
(G  O E (U) UOp (Sht )
10        1   0  -136.
FBAN
(NFr) O (NTo) Nc C (Vmn (Vmx Bctrl (Qini) T A (Extr
 9605     106  1 D 1000 1100   106        C     106 
(G  O E (U) UOp (Sht )
10        1   0  -136.
FBAN
(NFr) O (NTo) Nc C (Vmn (Vmx Bctrl (Qini) T A (Extr
 9605     106  2 D 1000 1100   106        C     106 
(G  O E (U) UOp (Sht )
10        1   0  -136.
FBAN
(NFr) O (NTo) Nc C (Vmn (Vmx Bctrl (Qini) T A (Extr
  120            D 0950 1050   120        C         
(G  O E (U) UOp (Sht )
10        1   0   150.
FBAN
(NFr) O (NTo) Nc C (Vmn (Vmx Bctrl (Qini) T A (Extr
  122            F 0900 1100   122        C         
(G  O E (U) UOp (Sht )
10        1   0  -180.
FBAN
(NFr) O (NTo) Nc C (Vmn (Vmx Bctrl (Qini) T A (Extr
  123            D 0950 1050   123        C         
(G  O E (U) UOp (Sht )
10        2   0   100.
FBAN
(NFr) O (NTo) Nc C (Vmn (Vmx Bctrl (Qini) T A (Extr
  126            D 0950 1050   126   250. C         
(G  O E (U) UOp (Sht )
10        1   1   100.
20        1   1   150.
FBAN
(NFr) O (NTo) Nc C (Vmn (Vmx Bctrl (Qini) T A (Extr
  138            D 0950 1050   138        C         
(G  O E (U) UOp (Sht )
10        1   0   -60.
20        1   0  -100.
FBAN
(NFr) O (NTo) Nc C (Vmn (Vmx Bctrl (Qini) T A (Extr
  140            D 1030 1050   140   325. L         
(G  O E (U) UOp (Sht )
10        2   2  162.5
FBAN
(NFr) O (NTo) Nc C (Vmn (Vmx Bctrl (Qini) T A (Extr
  147    3966  1 D 0950 1050   147        C     147 
(G  O E (U) UOp (Sht )
10        1   0   -60.
FBAN
(NFr) O (NTo) Nc C (Vmn (Vmx Bctrl (Qini) T A (Extr
  147    3966  2 D 0950 1050   147        C     147 
(G  O E (U) UOp (Sht )
10        1   0   -60.
FBAN
(NFr) O (NTo) Nc C (Vmn (Vmx Bctrl (Qini) T A (Extr
 3344     149  1 D 0950 1050   149   -60. C     149 
(G  O E (U) UOp (Sht )
10        1   1   -60.
FBAN
(NFr) O (NTo) Nc C (Vmn (Vmx Bctrl (Qini) T A (Extr
 3032     149  1 D 0950 1050   149   -60. C     149 
(G  O E (U) UOp (Sht )
10        1   1   -60.
FBAN
(NFr) O (NTo) Nc C (Vmn (Vmx Bctrl (Qini) T A (Extr
  154            D 0950 1050   154    10. C         
(G  O E (U) UOp (Sht )
10        3   1    10.
FBAN
(NFr) O (NTo) Nc C (Vmn (Vmx Bctrl (Qini) T A (Extr
  155            D 0950 1050   155    10. C         
(G  O E (U) UOp (Sht )
10        3   1    10.
FBAN
(NFr) O (NTo) Nc C (Vmn (Vmx Bctrl (Qini) T A (Extr
  156            D 0950 1050   156    10. C         
(G  O E (U) UOp (Sht )
10        3   1    10.
FBAN
(NFr) O (NTo) Nc C (Vmn (Vmx Bctrl (Qini) T A (Extr
  157            D 0900 1100   157   120. L         
(G  O E (U) UOp (Sht )
10        2   2    60.
FBAN
(NFr) O (NTo) Nc C (Vmn (Vmx Bctrl (Qini) T A (Extr
  159            D 0950 1050   159        C         
(G  O E (U) UOp (Sht )
10        1   0   -30.
FBAN
(NFr) O (NTo) Nc C (Vmn (Vmx Bctrl (Qini) T A (Extr
  160            D 0950 1050   160        C         
(G  O E (U) UOp (Sht )
10        1   0   -30.
FBAN
(NFr) O (NTo) Nc C (Vmn (Vmx Bctrl (Qini) T A (Extr
  163            D 0500 1300   163        C         
(G  O E (U) UOp (Sht )
10        2   0   -25.
FBAN
(NFr) O (NTo) Nc C (Vmn (Vmx Bctrl (Qini) T A (Extr
  165            D 0950 1060   165        C         
(G  O E (U) UOp (Sht )
10        2   0   -25.
FBAN
(NFr) O (NTo) Nc C (Vmn (Vmx Bctrl (Qini) T A (Extr
  167            D 0950 1050   167        C         
(G  O E (U) UOp (Sht )
10        1   0   -30.
FBAN
(NFr) O (NTo) Nc C (Vmn (Vmx Bctrl (Qini) T A (Extr
  169            F 0900 1100   169   500. L         
(G  O E (U) UOp (Sht )
10        2   2   250.
FBAN
(NFr) O (NTo) Nc C (Vmn (Vmx Bctrl (Qini) T A (Extr
  170            F 0950 1050   170        C         
(G  O E (U) UOp (Sht )
10        1   0   150.
FBAN
(NFr) O (NTo) Nc C (Vmn (Vmx Bctrl (Qini) T A (Extr
  174            D 0900 1100   174   150. L         
(G  O E (U) UOp (Sht )
10        2   2    75.
FBAN
(NFr) O (NTo) Nc C (Vmn (Vmx Bctrl (Qini) T A (Extr
  175            F 1030 1050   175        L         
(G  O E (U) UOp (Sht )
10        2   0    50.
FBAN
(NFr) O (NTo) Nc C (Vmn (Vmx Bctrl (Qini) T A (Extr
  180            D 0900 1100   180   200. L         
(G  O E (U) UOp (Sht )
10        2   2   100.
FBAN
(NFr) O (NTo) Nc C (Vmn (Vmx Bctrl (Qini) T A (Extr
  185            D 1000 1050   185    25. L         
(G  O E (U) UOp (Sht )
10        1   1    25.
FBAN
(NFr) O (NTo) Nc C (Vmn (Vmx Bctrl (Qini) T A (Extr
  194            D 0950 1050   194        C         
(G  O E (U) UOp (Sht )
10        1   0   -50.
FBAN
(NFr) O (NTo) Nc C (Vmn (Vmx Bctrl (Qini) T A (Extr
  196            D 0950 1050   196        C         
(G  O E (U) UOp (Sht )
10        2   0   -50.
FBAN
(NFr) O (NTo) Nc C (Vmn (Vmx Bctrl (Qini) T A (Extr
  197            D 0950 1050   197        C         
(G  O E (U) UOp (Sht )
10        1   0   -50.
FBAN
(NFr) O (NTo) Nc C (Vmn (Vmx Bctrl (Qini) T A (Extr
  198            D 0950 1050   198        C         
(G  O E (U) UOp (Sht )
10        2   0   -50.
FBAN
(NFr) O (NTo) Nc C (Vmn (Vmx Bctrl (Qini) T A (Extr
  199            D 0950 1050   199    10. C         
(G  O E (U) UOp (Sht )
10        3   1    10.
FBAN
(NFr) O (NTo) Nc C (Vmn (Vmx Bctrl (Qini) T A (Extr
  205            D 0900 1100   205        L         
(G  O E (U) UOp (Sht )
10        1   0    50.
FBAN
(NFr) O (NTo) Nc C (Vmn (Vmx Bctrl (Qini) T A (Extr
  206            D 0900 1100   206        L         
(G  O E (U) UOp (Sht )
10        1   0    50.
FBAN
(NFr) O (NTo) Nc C (Vmn (Vmx Bctrl (Qini) T A (Extr
  233     210  1 D 1060 1090   210  -136. L     210 
(G  O E (U) UOp (Sht )
10        1   1  -136.
FBAN
(NFr) O (NTo) Nc C (Vmn (Vmx Bctrl (Qini) T A (Extr
  218            D 1008 1049   218        L         
(G  O E (U) UOp (Sht )
10        1   0   91.5
FBAN
(NFr) O (NTo) Nc C (Vmn (Vmx Bctrl (Qini) T A (Extr
  218     234  1 D 1008 1049   218        L     218 
(G  O E (U) UOp (Sht )
10        1   0   -60.
FBAN
(NFr) O (NTo) Nc C (Vmn (Vmx Bctrl (Qini) T A (Extr
  217     218  2 D 1008 1049   218        L     218 
(G  O E (U) UOp (Sht )
10        1   0   -60.
FBAN
(NFr) O (NTo) Nc C (Vmn (Vmx Bctrl (Qini) T A (Extr
  229            D 0900 1100   229   -15. L         
(G  O E (U) UOp (Sht )
10        1   1   -15.
20        2   0   27.7
FBAN
(NFr) O (NTo) Nc C (Vmn (Vmx Bctrl (Qini) T A (Extr
  230            C 0950 1050   230 29.218 C         
(G  O E (U) UOp (Sht )
10        2   0   150.
FBAN
(NFr) O (NTo) Nc C (Vmn (Vmx Bctrl (Qini) T A (Extr
  231            D 0950 1050   231        C         
(G  O E (U) UOp (Sht )
10        1   0   -45.
FBAN
(NFr) O (NTo) Nc C (Vmn (Vmx Bctrl (Qini) T A (Extr
  232            D 0900 1100   232        L         
(G  O E (U) UOp (Sht )
10        2   0    15.
FBAN
(NFr) O (NTo) Nc C (Vmn (Vmx Bctrl (Qini) T A (Extr
  233            D 1050 1085   233  -136. L         
(G  O E (U) UOp (Sht )
10        1   1  -136.
FBAN
(NFr) O (NTo) Nc C (Vmn (Vmx Bctrl (Qini) T A (Extr
  234            D 0900 1100   234        L         
(G  O E (U) UOp (Sht )
10        2   0   150.
FBAN
(NFr) O (NTo) Nc C (Vmn (Vmx Bctrl (Qini) T A (Extr
  235     299  1 D 1000 1100   235  -136. C     235 
(G  O E (U) UOp (Sht )
10        1   1  -136.
FBAN
(NFr) O (NTo) Nc C (Vmn (Vmx Bctrl (Qini) T A (Extr
  235      92  1 D 1000 1100   235  -73.5 C     235 
(G  O E (U) UOp (Sht )
10        1   1  -73.5
FBAN
(NFr) O (NTo) Nc C (Vmn (Vmx Bctrl (Qini) T A (Extr
  238            F 0950 1050   238        C         
(G  O E (U) UOp (Sht )
10        1   0   -15.
FBAN
(NFr) O (NTo) Nc C (Vmn (Vmx Bctrl (Qini) T A (Extr
  241            D 0950 1050   241   -25. C         
(G  O E (U) UOp (Sht )
10        1   0    -5.
20        1   1   -25.
30    D   3   0    10.
FBAN
(NFr) O (NTo) Nc C (Vmn (Vmx Bctrl (Qini) T A (Extr
  243            D 0500 1300   243        C         
(G  O E (U) UOp (Sht )
10    D   2   0   -25.
FBAN
(NFr) O (NTo) Nc C (Vmn (Vmx Bctrl (Qini) T A (Extr
  245            D 0900 1100   245        L         
(G  O E (U) UOp (Sht )
10    D   2   2   -25.
20        2   0    15.
FBAN
(NFr) O (NTo) Nc C (Vmn (Vmx Bctrl (Qini) T A (Extr
  246            D 0900 1100   246        C         
(G  O E (U) UOp (Sht )
10        2   0   -50.
FBAN
(NFr) O (NTo) Nc C (Vmn (Vmx Bctrl (Qini) T A (Extr
  273            D 0950 1050   273   216. C         
(G  O E (U) UOp (Sht )
10        2   2   108.
FBAN
(NFr) O (NTo) Nc C (Vmn (Vmx Bctrl (Qini) T A (Extr
  274            D 0900 1100   274   79.2 L         
(G  O E (U) UOp (Sht )
10        2   1   79.2
FBAN
(NFr) O (NTo) Nc C (Vmn (Vmx Bctrl (Qini) T A (Extr
  277            D 1000 1050   277        L         
(G  O E (U) UOp (Sht )
10        3   0   26.4
FBAN
(NFr) O (NTo) Nc C (Vmn (Vmx Bctrl (Qini) T A (Extr
  278            D 1000 1050   278  158.4 L         
(G  O E (U) UOp (Sht )
10        2   2   79.2
FBAN
(NFr) O (NTo) Nc C (Vmn (Vmx Bctrl (Qini) T A (Extr
  299            D 0900 1100   299        L         
(G  O E (U) UOp (Sht )
10        1   0  -136.
FBAN
(NFr) O (NTo) Nc C (Vmn (Vmx Bctrl (Qini) T A (Extr
  309            F 0950 1050   309   32.8 C         
(G  O E (U) UOp (Sht )
10        1   1   32.8
FBAN
(NFr) O (NTo) Nc C (Vmn (Vmx Bctrl (Qini) T A (Extr
  313            D 0950 1050   313   100. C         
(G  O E (U) UOp (Sht )
10        1   1   100.
FBAN
(NFr) O (NTo) Nc C (Vmn (Vmx Bctrl (Qini) T A (Extr
  314            F 0950 1050   314   32.8 C         
(G  O E (U) UOp (Sht )
10        1   1   32.8
FBAN
(NFr) O (NTo) Nc C (Vmn (Vmx Bctrl (Qini) T A (Extr
  315            D 0950 1050   315        C         
(G  O E (U) UOp (Sht )
10        2   0   -20.
FBAN
(NFr) O (NTo) Nc C (Vmn (Vmx Bctrl (Qini) T A (Extr
...